Circuit: * C:\Users\daris\Boost_converter\Boostconverter\ltspice\boost_converter.asc

Limiting rise time of source v2 to 4.167e-07
Limiting fall time of source v2 to 4.167e-07
Direct Newton iteration for .op point succeeded.

Date: Sat Jun 29 16:31:18 2024
Total elapsed time: 1.232 seconds.

tnom = 27
temp = 27
method = modified trap
totiter = 523294
traniter = 523284
tranpoints = 201701
accept = 143827
rejected = 57874
matrix size = 11
fillins = 1
solver = Normal
Avg thread counts: 1.0/1.0/1.0/1.0
Matrix Compiler1: 512 bytes object code size  0.3/0.4/[0.3]
Matrix Compiler2: off  [0.3]/0.3/0.3

