Circuit: * C:\Users\daris\Downloads\booster_converter.asc

Limiting rise time of source v2 to 4.167e-07
Limiting fall time of source v2 to 4.167e-07
Direct Newton iteration for .op point succeeded.

Date: Thu Mar 28 23:21:48 2024
Total elapsed time: 1.712 seconds.

tnom = 27
temp = 27
method = modified trap
totiter = 523294
traniter = 523284
tranpoints = 201701
accept = 143827
rejected = 57874
matrix size = 11
fillins = 1
solver = Normal
Avg thread counts: 1.0/1.0/1.0/1.0
Matrix Compiler1:      29 opcodes  0.4/[0.2]/0.3
Matrix Compiler2: 793 bytes object code size  1.3/0.3/[0.3]

